[TITLE]
;;Project Title/Notes

[OPTIONS]
;;Option             Value
FLOW_UNITS           CFS
INFILTRATION         GREEN_AMPT
FLOW_ROUTING         DYNWAVE
LINK_OFFSETS         ELEVATION
MIN_SLOPE            0
ALLOW_PONDING        NO
SKIP_STEADY_STATE    NO

START_DATE           05/31/2025
START_TIME           12:00:00
REPORT_START_DATE    05/31/2025
REPORT_START_TIME    12:00:00
END_DATE             06/02/2025
END_TIME             12:00:00
SWEEP_START          01/01
SWEEP_END            12/31
DRY_DAYS             0
REPORT_STEP          00:05:00
WET_STEP             00:05:00
DRY_STEP             00:05:00
ROUTING_STEP         5
RULE_STEP            00:00:00

INERTIAL_DAMPING     PARTIAL
NORMAL_FLOW_LIMITED  BOTH
FORCE_MAIN_EQUATION  H-W
VARIABLE_STEP        0.75
LENGTHENING_STEP     0
MIN_SURFAREA         0
MAX_TRIALS           8
HEAD_TOLERANCE       0.005
SYS_FLOW_TOL         5
LAT_FLOW_TOL         5
MINIMUM_STEP         0.5
THREADS              10

[EVAPORATION]
;;Data Source    Parameters
;;-------------- ----------------
CONSTANT         0.0
DRY_ONLY         NO


[RAINGAGES]
;;Name           Format    Interval SCF      Source    
;;-------------- --------- -------- -------- ----------
rain_gage        INTENSITY 0:15     1.0      TIMESERIES rain_gage_timeseries


[SUBCATCHMENTS]
;;Name           Rain Gage        Outlet           Area     %Imperv  Width    %Slope   CurbLen  SnowPack        
;;-------------- ---------------- ---------------- -------- -------- -------- -------- -------- ----------------
Sub_1            rain_gage J89             2.617765 55       272.791  3.958    0                        
Sub_10           rain_gage J12             2.18565  77       296.41   2.486    0                        
Sub_11           rain_gage J6              0.668038 57       130.525  5.024    0                        
Sub_12           rain_gage J12             5.314013 49       283.97   3.494    0                        
Sub_13           rain_gage J2              4.37666  50       341.658  2.993    0                        
Sub_14           rain_gage J155            14.910034 52      412.399  3.971    0                        
Sub_15           rain_gage J96             3.683887 59       325.746  4.88     0                        
Sub_16           rain_gage J32             2.810199 48       372.644  3.577    0                        
Sub_17           rain_gage J30             4.94355  41       458.983  4.741    0                        
Sub_18           rain_gage J8              1.515449 79       250      2.309    0                        
Sub_19           rain_gage J121            2.153869 78       372      3.476    0                        
Sub_2            rain_gage J6              4.807336 64       406.941  3.888    0                        
Sub_20           rain_gage J13             11.541403 57      261.373  3.938    0                        
Sub_21           rain_gage J46             2.477661 71       159.749  3.287    0                        
Sub_22           rain_gage J118            0.941791 69       200      3.289    0                        
Sub_23           rain_gage J103            2.947199 63       250      3.652    0                        
Sub_24           rain_gage J4              5.931731 59       412.942  3.203    0                        
Sub_25           rain_gage J52             3.377217 42       300      3.126    0                        
Sub_26           rain_gage J1              6.443093 60       408.851  3.644    0                        
Sub_27           rain_gage J118            2.294208 67       250      3.468    0                        
Sub_28           rain_gage J43             10.607941 71      229.011  3.181    0                        
Sub_29           rain_gage J7              4.458486 76       300      3.196    0                        
Sub_3            rain_gage outfall         2.793798 72       465.996  3.77     0                        
Sub_30           rain_gage J57             2.6365   74       390.638  3.081    0                        
Sub_31           rain_gage J156            2.903509 72       292.33   2.778    0                        
Sub_32           rain_gage J126            7.631167 77       310.577  2.818    0                        
Sub_33           rain_gage J63             3.193978 83       461.414  3.079    0                        
Sub_34           rain_gage J5              2.28701  65       250      2.624    0                        
Sub_35           rain_gage J3              2.761793 70       217.643  2.817    0                        
Sub_36           rain_gage J70             1.431032 50       235.883  2.23     0                        
Sub_37           rain_gage J71             1.872794 78       251.701  3.23     0                        
Sub_38           rain_gage J23             4.365819 73       354.849  3.241    0                        
Sub_39           rain_gage J147            11.94458 56       244.722  2.953    0                        
Sub_4            rain_gage J11             2.176058 82       358.743  3.974    0                        
Sub_5            rain_gage J25             2.015964 96       268.687  3.048    0                        
Sub_6            rain_gage J26             1.687669 85       314.595  3.714    0                        
Sub_7            rain_gage J17             0.858799 75       147.578  3.365    0                        
Sub_8            rain_gage J10             0.368009 39       73.533   3.144    0                        
Sub_9            rain_gage J9              4.517812 42       345.456  3.89     0                        

[SUBAREAS]
;;Subcatchment   N-Imperv   N-Perv     S-Imperv   S-Perv     PctZero    RouteTo    PctRouted 
;;-------------- ---------- ---------- ---------- ---------- ---------- ---------- ----------
Sub_1            0.01       0.1        0.05       0.05       25         PERVIOUS   30 
Sub_10           0.01       0.1        0.05       0.05       25         PERVIOUS   30  
Sub_10           0.01       0.1        0.05       0.05       25         PERVIOUS   30 
Sub_11           0.01       0.1        0.05       0.05       25         PERVIOUS   30    
Sub_12           0.01       0.1        0.05       0.05       25         PERVIOUS   30    
Sub_13           0.01       0.1        0.05       0.05       25         PERVIOUS   30    
Sub_14           0.01       0.1        0.05       0.05       25         PERVIOUS   30    
Sub_15           0.01       0.1        0.05       0.05       25         PERVIOUS   30    
Sub_16           0.01       0.1        0.05       0.05       25         PERVIOUS   30    
Sub_17           0.01       0.1        0.05       0.05       25         PERVIOUS   30    
Sub_18           0.01       0.1        0.05       0.05       25         PERVIOUS   30    
Sub_19           0.01       0.1        0.05       0.05       25         PERVIOUS   30    
Sub_2            0.01       0.1        0.05       0.05       25         PERVIOUS   30    
Sub_20           0.01       0.1        0.05       0.05       25         PERVIOUS   30    
Sub_21           0.01       0.1        0.05       0.05       25         PERVIOUS   30    
Sub_22           0.01       0.1        0.05       0.05       25         PERVIOUS   30    
Sub_23           0.01       0.1        0.05       0.05       25         PERVIOUS   30    
Sub_24           0.01       0.1        0.05       0.05       25         PERVIOUS   30    
Sub_25           0.01       0.1        0.05       0.05       25         PERVIOUS   30    
Sub_26           0.01       0.1        0.05       0.05       25         PERVIOUS   30    
Sub_27           0.01       0.1        0.05       0.05       25         PERVIOUS   30    
Sub_28           0.01       0.1        0.05       0.05       25         PERVIOUS   30    
Sub_29           0.01       0.1        0.05       0.05       25         PERVIOUS   30    
Sub_3            0.01       0.1        0.05       0.05       25         PERVIOUS   30    
Sub_30           0.01       0.1        0.05       0.05       25         PERVIOUS   30    
Sub_31           0.01       0.1        0.05       0.05       25         PERVIOUS   30    
Sub_32           0.01       0.1        0.05       0.05       25         PERVIOUS   30    
Sub_33           0.01       0.1        0.05       0.05       25         PERVIOUS   30    
Sub_34           0.01       0.1        0.05       0.05       25         PERVIOUS   30    
Sub_35           0.01       0.1        0.05       0.05       25         PERVIOUS   30    
Sub_36           0.01       0.1        0.05       0.05       25         PERVIOUS   30    
Sub_37           0.01       0.1        0.05       0.05       25         PERVIOUS   30    
Sub_38           0.01       0.1        0.05       0.05       25         PERVIOUS   30 
Sub_39           0.01       0.1        0.05       0.05       25         PERVIOUS   30 
Sub_4            0.01       0.1        0.05       0.05       25         PERVIOUS   30 
Sub_5            0.01       0.1        0.05       0.05       25         PERVIOUS   30 
Sub_6            0.01       0.1        0.05       0.05       25         PERVIOUS   30 
Sub_7            0.01       0.1        0.05       0.05       25         PERVIOUS   30 
Sub_8            0.01       0.1        0.05       0.05       25         PERVIOUS   30 
Sub_9            0.01       0.1        0.05       0.05       25         PERVIOUS   30 

[INFILTRATION]
;;Subcatchment   Param1     Param2     Param3     Param4     Param5    
;;-------------- ---------- ---------- ---------- ---------- ----------
Sub_1            6.57       0.26       0.25       0          0         
Sub_10           3.5        0.13       0.25       0          0         
Sub_11           6.57       0.26       0.25       0          0         
Sub_12           6.57       0.26       0.25       0          0         
Sub_13           6.57       0.26       0.25       0          0         
Sub_14           6.57       0.26       0.25       0          0         
Sub_15           6.57       0.26       0.25       0          0         
Sub_16           3.5        0.13       0.25       0          0         
Sub_17           6.57       0.26       0.25       0          0         
Sub_18           6.57       0.26       0.25       0          0         
Sub_19           6.57       0.26       0.25       0          0         
Sub_2            3.5        0.13       0.25       0          0         
Sub_20           6.57       0.26       0.25       0          0         
Sub_21           6.57       0.26       0.25       0          0         
Sub_22           3.5        0.13       0.25       0          0         
Sub_23           6.57       0.26       0.25       0          0         
Sub_24           6.57       0.26       0.25       0          0         
Sub_25           3.5        0.13       0.25       0          0         
Sub_26           6.57       0.26       0.25       0          0         
Sub_27           6.57       0.26       0.25       0          0         
Sub_28           6.57       0.26       0.25       0          0         
Sub_29           6.57       0.26       0.25       0          0         
Sub_3            3.5        0.13       0.25       0          0         
Sub_30           6.57       0.26       0.25       0          0         
Sub_31           6.57       0.26       0.25       0          0         
Sub_32           6.57       0.26       0.25       0          0         
Sub_33           6.57       0.26       0.25       0          0         
Sub_34           6.57       0.26       0.25       0          0         
Sub_35           6.57       0.26       0.25       0          0         
Sub_36           6.57       0.26       0.25       0          0         
Sub_37           6.57       0.26       0.25       0          0         
Sub_38           6.57       0.26       0.25       0          0         
Sub_39           6.57       0.26       0.25       0          0         
Sub_4            6.57       0.26       0.25       0          0         
Sub_5            6.57       0.26       0.25       0          0         
Sub_6            6.57       0.26       0.25       0          0         
Sub_7            6.57       0.26       0.25       0          0         
Sub_8            6.57       0.26       0.25       0          0         
Sub_9            3.5        0.13       0.25       0          0         

[LID_CONTROLS]
;;Name           Type/Layer Parameters
;;-------------- ---------- ----------
rain_barrel      RB
rain_barrel      STORAGE    34.25      0.75       0.5        0          YES       
rain_barrel      DRAIN      0          0.5        6          6          0          0                    

rain_garden      RG
rain_garden      SURFACE    6          0.25       0.1        1.0        5         
rain_garden      SOIL       24         .453       0.2        0.1        0.43       10.0       4.33      
rain_garden      STORAGE    0          0.75       0.5        0          NO        


[LID_USAGE]
;;Subcatchment   LID Process      Number  Area       Width      InitSat    FromImp    ToPerv     RptFile                  DrainTo          FromPerv  
;;-------------- ---------------- ------- ---------- ---------- ---------- ---------- ---------- ------------------------ ---------------- ----------
Sub_1          rain_barrel          60    2.58      0       0   28.72       1                       *               *        0
Sub_1          rain_garden          15     100      0       0       0       1                       *               *    14.61
Sub_2          rain_barrel         140    2.58      0       0   31.44       1                       *               *        0
Sub_2          rain_garden          15     100      0       0       0       1                       *               *     9.89
Sub_3          rain_barrel          41    2.58      0       0   14.15       1                       *               *        0
Sub_3          rain_garden          10     100      0       0       0       1                       *               *    14.43
Sub_4          rain_barrel          75    2.58      0       0   28.96       1                       *               *        0
Sub_4          rain_garden           3     100      0       0       0       1                       *               *     8.76
Sub_5          rain_barrel          46    2.58      0       0   16.36       1                       *               *        0
Sub_5          rain_garden           3     100      0       0       0       1                       *               *    38.08
Sub_6          rain_barrel          51    2.58      0       0   24.61       1                       *               *        0
Sub_6          rain_garden          15     100      0       0       0       1                       *               *    69.40
Sub_7          rain_barrel           1    2.58      0       0    1.06       1                       *               *        0
Sub_9          rain_barrel          94    2.58      0       0   33.85       1                       *               *        0
Sub_9          rain_garden          33     100      0       0       0       1                       *               *    14.55
Sub_10         rain_barrel         123    2.58      0       0   50.14       1                       *               *        0
Sub_11         rain_barrel           8    2.58      0       0   14.47       1                       *               *        0
Sub_11         rain_garden           6     100      0       0       0       1                       *               *    23.94
Sub_12         rain_barrel         163    2.58      0       0   42.81       1                       *               *        0
Sub_12         rain_garden          52     100      0       0       0       1                       *               *    22.20
Sub_13         rain_barrel         167    2.58      0       0   52.08       1                       *               *        0
Sub_13         rain_garden          28     100      0       0       0       1                       *               *    14.82
Sub_14         rain_barrel         480    2.58      0       0   42.69       1                       *               *        0
Sub_14         rain_garden         259     100      0       0       0       1                       *               *    41.46
Sub_15         rain_barrel         125    2.58      0       0   39.38       1                       *               *        0
Sub_15         rain_garden          62     100      0       0       0       1                       *               *    47.60
Sub_16         rain_barrel          54    2.58      0       0   27.44       1                       *               *        0
Sub_16         rain_garden           8     100      0       0       0       1                       *               *     6.32
Sub_17         rain_barrel          91    2.58      0       0   30.87       1                       *               *        0
Sub_17         rain_garden          52     100      0       0       0       1                       *               *    20.48
Sub_18         rain_barrel          92    2.58      0       0   53.02       1                       *               *        0
Sub_18         rain_garden           3     100      0       0       0       1                       *               *    10.74
Sub_19         rain_barrel         106    2.58      0       0   43.37       1                       *               *        0
Sub_19         rain_garden          14     100      0       0       0       1                       *               *    34.17
Sub_20         rain_barrel         361    2.58      0       0   37.80       1                       *               *        0
Sub_20         rain_garden         122     100      0       0       0       1                       *               *    28.21
Sub_21         rain_barrel         103    2.58      0       0   40.16       1                       *               *        0
Sub_21         rain_garden           3     100      0       0       0       1                       *               *     4.85
Sub_22         rain_barrel          11    2.58      0       0   11.69       1                       *               *        0
Sub_23         rain_barrel          59    2.58      0       0   21.74       1                       *               *        0
Sub_23         rain_garden           5     100      0       0       0       1                       *               *     5.33
Sub_24         rain_barrel         164    2.58      0       0   32.03       1                       *               *        0
Sub_24         rain_garden          67     100      0       0       0       1                       *               *    31.99
Sub_25         rain_barrel          82    2.58      0       0   40.29       1                       *               *        0
Sub_26         rain_barrel         224    2.58      0       0   40.07       1                       *               *        0
Sub_26         rain_garden          26     100      0       0       0       1                       *               *    11.50
Sub_27         rain_barrel          79    2.58      0       0   35.55       1                       *               *        0
Sub_27         rain_garden          14     100      0       0       0       1                       *               *    21.03
Sub_28         rain_barrel         359    2.58      0       0   33.06       1                       *               *        0
Sub_28         rain_garden          65     100      0       0       0       1                       *               *    23.87
Sub_29         rain_barrel         163    2.58      0       0   33.11       1                       *               *        0
Sub_29         rain_garden          16     100      0       0       0       1                       *               *    17.18
Sub_30         rain_barrel         101    2.58      0       0   35.75       1                       *               *        0
Sub_30         rain_garden           9     100      0       0       0       1                       *               *    15.03
Sub_31         rain_barrel          89    2.58      0       0   29.48       1                       *               *        0
Sub_31         rain_garden          36     100      0       0       0       1                       *               *    50.13
Sub_32         rain_barrel         328    2.58      0       0   38.35       1                       *               *        0
Sub_32         rain_garden          35     100      0       0       0       1                       *               *    23.00
Sub_33         rain_barrel         125    2.58      0       0   32.35       1                       *               *        0
Sub_33         rain_garden          10     100      0       0       0       1                       *               *    21.52
Sub_34         rain_barrel          69    2.58      0       0   31.90       1                       *               *        0
Sub_34         rain_garden          36     100      0       0       0       1                       *               *    51.87
Sub_35         rain_barrel          77    2.58      0       0   27.45       1                       *               *        0
Sub_35         rain_garden          35     100      0       0       0       1                       *               *    48.42
Sub_36         rain_barrel          43    2.58      0       0   41.70       1                       *               *        0
Sub_36         rain_garden          36     100      0       0       0       1                       *               *    57.21
Sub_37         rain_barrel          62    2.58      0       0   29.26       1                       *               *        0
Sub_37         rain_garden          17     100      0       0       0       1                       *               *    46.98
Sub_38         rain_barrel         106    2.58      0       0   22.80       1                       *               *        0
Sub_38         rain_garden          30     100      0       0       0       1                       *               *    29.59
Sub_39         rain_barrel         252    2.58      0       0   25.82       1                       *               *        0
Sub_39         rain_garden         207     100      0       0       0       1                       *               *    45.51

[JUNCTIONS]
;;Name           Elevation  MaxDepth   InitDepth  SurDepth   Aponded   
;;-------------- ---------- ---------- ---------- ---------- ----------
J1               -6.1083646 11.746     0          0          0         
J10              -6.3       10.18      0          0          0         
J103             -6.1944071 10.563     0          0          0         
J104             -6.2206071 10.062     0          0          0         
J11              0          4.566      0          0          0         
J118             -6.1781071 12.118     0          0          0         
J12              -1.485     6.079      0          0          0         
J121             -1.0107911 9.496      0          0          0         
J126             2.706      5.199      0          0          0         
J13              -6.136368430039 12.385 0         0          0         
J14              -6.299752529212 10.18 0          0          0         
J147             2          4.845      0          0          0         
J151             -6.2935    10.14      0          0          0         
J156             2          6.646      0          0          0         
J17              -2.2135    6.733      0          0          0         
J18              -6.287     10.207     0          0          0         
J2               -0.37      7.684      0          0          0         
J23              1.982      4.729      0          0          0         
J25              -0.9595    9.418      0          0          0         
J26              -1.4415    7.94       0          0          0         
J27              -2.161404017816 4.903 0          0          0         
J3               -0.5652406 9.121      0          0          0         
J30              -6.2589    9.778      0          0          0         
J32              -6.2283071 10.584     0          0          0         
J4               -1.2046906 7.627      0          0          0         
J43              -1.7       8.65       0          0          0         
J44              -6.1773071 12.573     0          0          0         
J46              -6.1584071 11.432     0          0          0         
J5               -1.0871906 8.966      0          0          0         
J50              -6.1512809 11.757     0          0          0         
J52              -6.1337809 12.494     0          0          0         
J57              -1.5926906 8.816      0          0          0         
J6               -2.092     5.834      0          0          0         
J63              1.87       4.027      0          0          0         
J7               -0.4187606 6.532      0          0          0         
J70              2          7.063      0          0          0         
J71              1.805      7.495      0          0          0         
J8               -1.3689071 8.637      0          0          0         
J89              -1         6.261      0          0          0         
J9               -2.196     4.44       0          0          0         
J96              -1.968     5.153      0          0          0         

[OUTFALLS]
;;Name           Elevation  Type       Stage Data       Gated    Route To        
;;-------------- ---------- ---------- ---------------- -------- ----------------
outfall          -6.3       TIMESERIES tide             NO                      

[STORAGE]
;;Name           Elev.    MaxDepth   InitDepth  Shape       Curve Name/Params            SurDepth Fevap    Psi      Ksat     IMD     
;;-------------- -------- ---------- ---------- ----------- ---------------------------- -------- -------- -------- -------- --------
J155             -4       7.185      2          PYRAMIDAL   215       150       4        0        0       

[CONDUITS]
;;Name           From Node        To Node          Length     Roughness  InOffset   OutOffset  InitFlow   MaxFlow   
;;-------------- ---------------- ---------------- ---------- ---------- ---------- ---------- ---------- ----------
;18''
C103_1           J71              J3               380.264    0.01       1.805      -0.5652406 0          0         
;18''
C103_3           J3               J5               260.975    0.01       -0.5652406 -1.0871906 0          0         
;18''
C103_4           J5               J57              252.75     0.01       -1.0871906 -1.5926906 0          0         
;15''
C108             J70              J71              121        0.01       2          1.805      0          0         
;18''
C110             J43              J44              240        0.01       -1.7       -2.1       0          0         
;36''
C125_1           J57              J1               257.837    0.01       -1.5926906 -4.1083646 0          0         
;36''
C125_2           J1               J52              254.163    0.01       -6.1083646 -6.1337809 0          0         
;24''
C147             J7               J4               392.966    0.01       -0.4187606 -1.2046906 0          0         
;24''
C147_2           J4               J57              194        0.01       -1.2046906 -1.5926906 0          0         
;24''
C147_5           J63              J7               273.426    0.01       1.87       -0.4187606 0          0         
;21''
C15              J26              J17              386        0.01       -1.4415    -2.2135    0          0         
;15''
C152             J23              J63              346.226    0.01       1.982      1.87       0          0         
;15''
C152_1           J147             J23              56.846     0.01       2          1.982      0          0         
;21''
C158             J17              J151             40         0.01       -2.2135    -2.2935    0          0         
;60''X96''
C159             J151             J10              65         0.01       -6.2935    -6.3       0          0         
;60''X96''
C160             J18              J151             65         0.01       -6.287     -6.2935    0          0         
;60''X96''
C167             J104             J32              77         0.01       -6.2206071 -6.2283071 0          0         
;24"
C168             J155             J104             15         0.01       0          -1         0          0         
;12"
C174             J156             J71              226        0.01       2          1.805      0          0         
;60''X96''
C18_1            J52              J13              24.855     0.01       -6.1337809 -6.136368430039 0     0         
;60''X96''
C18_2            J13              J50              142.89     0.01       -6.136368430039 -6.1512809 0     0         
C2               J50              J46              71.262     0.01       -6.1512809 -6.1584071 0          0         
;12''
C26              J11              J14              445.638    0.01       0          -1.3       0          0         
;15''
C27              J2               J89              314.94     0.01       -0.37      -1         0          0         
;18''
C38              J96              J32              130        0.01       -1.968     -2.22      0          0         
;21''
C47              J25              J26              241        0.01       -0.9595    -1.4415    0          0         
;60''X96''
C57              J103             J104             262        0.01       -6.1944071 -6.2206071 0          0         
;60''X96''
C62              J32              J30              305.929    0.01       -6.2283071 -6.2589    0          0         
;24''